ownCode/example5cdf.dat
example5                       100.0
BUS DATA FOLLOWS
   1               0000  3 1.0000   0.00     0.00      0.00   90.98   72.74     0.0 1.0000     0.0     0.0     0.0  0.0000 0000 0000
   2               0000  0 0.9835  -0.62    40.00     30.00    0.00    0.00     0.0 0.9835     0.0     0.0     0.0  0.0000 0000 0000
   3               0000  0 0.9747  -0.86    50.00     40.00    0.00    0.00     0.0 0.9747     0.0     0.0     0.0  0.0000 0000 0000
-999
BRANCH DATA FOLLOWS
   1    2  0000 0 0  0.010000   0.030000  0.00000   120 00000 00000 0000 0  0.0000    0.00   0.0    0.0    0.0      0.0      0.0 0000
   1    3  0000 0 0  0.020000   0.050000  0.00000   120 00000 00000 0000 0  0.0000    0.00   0.0    0.0    0.0      0.0      0.0 0000
   2    3  0000 0 0  0.030000   0.080000  0.00000   120 00000 00000 0000 0  0.0000    0.00   0.0    0.0    0.0      0.0      0.0 0000
-999
LOSS ZONES FOLLOWS
-99
INTERCHANGE DATA FOLLOWS
-9
TIE LINES FOLLOWS
-999
END OF DATA

